LAMMPS (29 Aug 2024 - Update 2)
package gpu 1
# Find minimum energy fcc configuration
# Mark Tschopp, 2010

# ---------- Initialize Simulation ---------------------
clear
package gpu 1
units metal
dimension 3
boundary p p p
atom_style atomic
atom_modify map array

# ---------- Create Atoms ---------------------
lattice 	fcc 4
Lattice spacing in x,y,z = 4 4 4
region box block 0 1 0 1 0 1 units lattice
create_box 1 box
Created orthogonal box = (0 0 0) to (4 4 4)
lattice	fcc 4 orient x 1 0 0 orient y 0 1 0 orient z 0 0 1
Lattice spacing in x,y,z = 4 4 4
create_atoms 1 box
Created 4 atoms
replicate 3 3 3
Replication is creating a 3x3x3 = 27 times larger system...
  orthogonal box = (0 0 0) to (12 12 12)
  108 atoms
  replicate CPU = 0.001 seconds

# ---------- Define Interatomic Potential ---------------------
pair_style eam/alloy
pair_coeff * * Al99.eam.alloy Al
neighbor 2.0 bin
neigh_modify delay 10 check yes

# ---------- Define Settings ---------------------
compute eng all pe/atom
compute eatoms all reduce sum c_eng

# ---------- Run Minimization ---------------------
reset_timestep 0
fix 1 all box/relax iso 0.0 vmax 0.001
thermo 10
thermo_style custom step pe lx ly lz press pxx pyy pzz c_eatoms
min_style cg
minimize 1e-25 1e-25 5000 10000

CITE-CITE-CITE-CITE-CITE-CITE-CITE-CITE-CITE-CITE-CITE-CITE-CITE

Your simulation uses code contributions which should be cited:

- GPU package (short-range, long-range and three-body potentials): doi:10.1016/j.cpc.2010.12.021, doi:10.1016/j.cpc.2011.10.012, doi:10.1016/j.cpc.2013.08.002, doi:10.1016/j.commatsci.2014.10.068, doi:10.1016/j.cpc.2016.10.020, doi:10.3233/APC200086

@Article{Brown11,
 author = {W. M. Brown and P. Wang and S. J. Plimpton and A. N. Tharrington},
 title = {Implementing Molecular Dynamics on Hybrid High Performance Computers---Short Range Forces},
 journal = {Comput.\ Phys.\ Commun.},
 year =    2011,
 volume =  182,
 pages =   {898--911},
 doi =     {10.1016/j.cpc.2010.12.021}
}

@Article{Brown12,
 author = {W. M. Brown and A. Kohlmeyer and S. J. Plimpton and A. N. Tharrington},
 title = {Implementing Molecular Dynamics on Hybrid High Performance Computers - Particle-Particle Particle-Mesh},
 journal = {Comput.\ Phys.\ Commun.},
 year =    2012,
 volume =  183,
 doi =     {10.1016/j.cpc.2011.10.012},
 pages =   {449--459}
}

@Article{Brown13,
 author = {W. M. Brown and Y. Masako},
 title = {Implementing Molecular Dynamics on Hybrid High Performance Computers---Three-Body Potentials},
 journal = {Comput.\ Phys.\ Commun.},
 year =    2013,
 volume =  184,
 pages =   {2785--2793},
 doi =     {10.1016/j.cpc.2013.08.002},
}

@Article{Trung15,
 author = {T. D. Nguyen and S. J. Plimpton},
 title = {Accelerating Dissipative Particle Dynamics Simulations for Soft Matter Systems},
 journal = {Comput.\ Mater.\ Sci.},
 year =    2015,
 doi =     {10.1016/j.commatsci.2014.10.068},
 volume =  100,
 pages =   {173--180}
}

@Article{Trung17,
 author = {T. D. Nguyen},
 title = {{GPU}-Accelerated {T}ersoff Potentials for Massively Parallel
    Molecular Dynamics Simulations},
 journal = {Comput.\ Phys.\ Commun.},
 year =    2017,
 doi =     {10.1016/j.cpc.2016.10.020},
 volume =  212,
 pages =   {113--122}
}

@inproceedings{Nikolskiy19,
 author = {V. Nikolskiy and V. Stegailov},
 title = {{GPU} Acceleration of Four-Site Water Models in {LAMMPS}},
 booktitle = {Proceedings of the International Conference on Parallel
    Computing (ParCo 2019), Prague, Czech Republic},
 doi =     {10.3233/APC200086},
 year =    2019
}

CITE-CITE-CITE-CITE-CITE-CITE-CITE-CITE-CITE-CITE-CITE-CITE-CITE

 (src/min.cpp:219)
Step         PotEng           Lx             Ly             Lz           Press           Pxx            Pyy            Pzz          c_eatoms
0  -362.28024      12             12             12             29590.196      29590.196      29590.196      29590.196     -362.28024
Loop time of 0.00602902 on 14 procs for 16 steps with 108 atoms

Minimization stats:
  Stopping criterion = linesearch alpha is zero
  Energy initial, next-to-last, final =
  Force two-norm initial, final = 95.741996 2.5865002e-05
  Force max component initial, final = 95.741996 1.0701229e-05
  Final line search alpha, max atom move = 0.5 5.3506146e-06
  Iterations, force evaluations = 16 21

variable natoms equal "count(all)"
variable teng equal "c_eatoms"
variable length equal "lx"
variable ecoh equal "v_teng/v_natoms"

Running simulation with lattice constant = 4
Total energy (eV) = -362.880001581274;
Number of atoms = 108;
Lattice constant (Angstoms) = 12.1500136436709;
Cohesive energy (eV) = -3.36000001464143;

print "All done!"
All done!
#
# Integration details,
timestep 0.0025
fix ensFix all nvt temp 273 273 0.25
velocity all create 273 4928459 dist gaussian
#dump myDump all  atom 100 traj.dcd
# Save the starting configuration.
write_data starting.dat.out
System init for write_data ...

# Run the simulation.
thermo 100
run 1000
Step         PotEng           Lx             Ly             Lz           Press           Pxx            Pyy            Pzz          c_eatoms
16  -362.87999      12.150014      12.150014      12.150014      2248.611       1954.7257      2621.3935      2169.7139     -362.87999
Averages over the last 6 of 12 rows, steps 600 to 1016:
PotEng Lx Ly Lz Press Pxx Pyy Pzz c_eatoms
-359.189 12.15 12.15 12.15 8123.35 8052.66 8097.56 8219.83 -359.189
Loop time of 0.547731 on 14 procs for 1000 steps with 108 atoms

# Save the final configuration.
write_data al.data-lattice.out
System init for write_data ...
